LTspice 24.1.9 for Windows
Circuit: Z:\home\grzegorz\git\MADC_ARTY_Test\LTSpice\Draft1.net
Start Time: Sat Aug  2 22:48:55 2025
solver = Normal
Maximum thread count: 12
tnom = 27
temp = 27
method = trap
.OP point found by inspection.
Total elapsed time: 0.036 seconds.

Files loaded:
Z:\home\grzegorz\git\MADC_ARTY_Test\LTSpice\Draft1.net

