LTspice 24.1.9 for Windows
Circuit: Z:\home\grzegorz\git\MADC_ARTY_Test\LTSpice\Draft1.net
Start Time: Wed Aug  6 17:32:34 2025
solver = Normal
Maximum thread count: 12
tnom = 27
temp = 27
method = trap
Direct Newton iteration for .op point succeeded.
Total elapsed time: 0.170 seconds.

Files loaded:
Z:\home\grzegorz\git\MADC_ARTY_Test\LTSpice\Draft1.net

