LTspice 24.1.9 for Windows
Circuit: Z:\home\grzegorz\git\MADC_ARTY_Test\LTSpice\REFV.net
Start Time: Sun Jul 20 21:53:03 2025
solver = Normal
Maximum thread count: 12
tnom = 27
temp = 27
method = trap
Direct Newton iteration for .op point succeeded.
Total elapsed time: 1.332 seconds.

Files loaded:
Z:\home\grzegorz\git\MADC_ARTY_Test\LTSpice\REFV.net
C:\users\grzegorz\AppData\Local\LTspice\lib\cmp\standard.dio
C:\users\grzegorz\AppData\Local\LTspice\lib\cmp\standard.bjt
C:\users\grzegorz\AppData\Local\LTspice\lib\sub\AD706.sub
C:\users\grzegorz\AppData\Local\LTspice\lib\sub\ADR1399E.sub
C:\users\grzegorz\AppData\Local\LTspice\lib\sub\LT5400-1.sub

